cholesterol
     RDKit          2D

 28 31  0  0  0  0  0  0  0  0999 V2000
   -4.5158    2.5394    0.0000 C   0  0  0  0  0  0  0  0  0  0  0  0
   -3.3897    1.5484    0.0000 C   0  0  0  0  0  0  0  0  0  0  0  0
   -3.6848    0.0778    0.0000 C   0  0  0  0  0  0  0  0  0  0  0  0
   -5.1060   -0.4020    0.0000 C   0  0  0  0  0  0  0  0  0  0  0  0
   -5.4012   -1.8727    0.0000 C   0  0  0  0  0  0  0  0  0  0  0  0
   -6.8224   -2.3524    0.0000 C   0  0  0  0  0  0  0  0  0  0  0  0
   -7.1175   -3.8231    0.0000 C   0  0  0  0  0  0  0  0  0  0  0  0
   -7.9484   -1.3615    0.0000 C   0  0  0  0  0  0  0  0  0  0  0  0
   -1.9685    2.0282    0.0000 C   0  0  0  0  0  0  0  0  0  0  0  0
   -1.5212    3.4600    0.0000 C   0  0  0  0  0  0  0  0  0  0  0  0
   -0.0213    3.4770    0.0000 C   0  0  0  0  0  0  0  0  0  0  0  0
    0.4584    2.0558    0.0000 C   0  0  0  0  0  0  0  0  0  0  0  0
   -0.7450    1.1604    0.0000 C   0  0  0  0  0  0  0  0  0  0  0  0
   -0.5712   -0.3295    0.0000 C   0  0  0  0  0  0  0  0  0  0  0  0
    0.8060   -0.9240    0.0000 C   0  0  0  0  0  0  0  0  0  0  0  0
    2.0094   -0.0285    0.0000 C   0  0  0  0  0  0  0  0  0  0  0  0
    1.8356    1.4614    0.0000 C   0  0  0  0  0  0  0  0  0  0  0  0
    3.0390    2.3568    0.0000 C   0  0  0  0  0  0  0  0  0  0  0  0
    4.4162    1.7624    0.0000 C   0  0  0  0  0  0  0  0  0  0  0  0
    4.5900    0.2725    0.0000 C   0  0  0  0  0  0  0  0  0  0  0  0
    3.3866   -0.6230    0.0000 C   0  0  0  0  0  0  0  0  0  0  0  0
    3.5603   -2.1129    0.0000 C   0  0  0  0  0  0  0  0  0  0  0  0
    4.9375   -2.7073    0.0000 C   0  0  0  0  0  0  0  0  0  0  0  0
    6.1409   -1.8119    0.0000 C   0  0  0  0  0  0  0  0  0  0  0  0
    5.9671   -0.3220    0.0000 C   0  0  0  0  0  0  0  0  0  0  0  0
    7.5181   -2.4063    0.0000 O   0  0  0  0  0  0  0  0  0  0  0  0
    2.1832   -1.5184    0.0000 C   0  0  0  0  0  0  0  0  0  0  0  0
   -2.0354    0.3956    0.0000 C   0  0  0  0  0  0  0  0  0  0  0  0
  2  1  1  1
  2  3  1  0
  3  4  1  0
  4  5  1  0
  5  6  1  0
  6  7  1  0
  6  8  1  0
  2  9  1  0
  9 10  1  1
 10 11  1  0
 12 11  1  1
 12 13  1  0
 13 14  1  0
 14 15  1  0
 16 15  1  1
 16 17  1  0
 17 18  1  6
 18 19  1  0
 19 20  2  0
 20 21  1  0
 21 22  1  0
 22 23  1  0
 23 24  1  0
 24 25  1  0
 24 26  1  1
 21 27  1  1
 13 28  1  1
 13  9  1  0
 17 12  1  0
 21 16  1  0
 25 20  1  0
M  END
$$$$
